           6
 new GEOMETRY from CPMD
  O      5.957356342300      7.707574339200      7.479541031579
  O      8.957353418134      7.296239190584      7.526949557286
  H      6.915643366561      7.611068052504      7.458789169004
  H      5.746063269377      8.380764098703      6.832057387666
  H      9.281684263985      6.433103141669      7.262270525561
  H      9.410411949925      7.514532954572      8.343858493781
